LAMMPS (2 Aug 2023)
# https://icme.hpc.msstate.edu/mediawiki/index.php/LAMMPS_reactive_deformation_of_a_single_polyethylene_chain.html

#Initialization
units metal
boundary s s s
atom_style atomic

region simulation_box block 0 80 0 30 0 30
create_box 2 simulation_box
Created orthogonal box = (0 0 0) to (80 30 30)

mass 1 12.010700
mass 2 1.00800000

read_dump struct_styrene_s25_atomid.lammpstrj 0 x y z add yes format native
Scanning dump file ...
Reading snapshot from dump file ...
  orthogonal box = (9.9942609 9.9987353 9.9989146) to (67.396539 22.648665 20.855585)
  0 atoms before read
  402 atoms in snapshot
  0 atoms purged
  0 atoms replaced
  0 atoms trimmed
  402 atoms added
  402 atoms after read

# Meam Potential for Saturated Hydrocarbons Information

pair_style meam
pair_coeff * * library.meam C H CH.meam C H

##################################################################################
#Minimization

minimize 0.0 1.0e-8 100000 100000
Step          Temp          E_pair         E_mol          TotEng         Press          Volume
0   0             -1801.6198      0             -1801.6198      14495.283      7883.4062
Loop time of 218.044 on 1 procs for 8498 steps with 402 atoms

Minimization stats:
  Stopping criterion = max force evaluations
  Energy initial, next-to-last, final =
  Force two-norm initial, final = 20.761306 5.2598906
  Force max component initial, final = 5.1206462 1.5577858
  Final line search alpha, max atom move = 0.0005015131 0.00078125
  Iterations, force evaluations = 8498 100010

# Equilibration

reset_timestep 0
velocity 		all create 0.0 1231 dist gaussian
fix 			1 all nve
fix 			2 all langevin 0 0 0.001 904297
thermo_style 	custom step etotal press vol temp density pxx pyy pzz
thermo	  	100
timestep 		0.0003
run 			20000
Step         TotEng         Press          Volume          Temp         Density          Pxx            Pyy            Pzz
0  -1824.4219      2952.0571      8119.366       0              0.5329306      7673.6205      981.58308      200.9676
Averages over the last 101 of 201 rows, steps 10000 to 20000:
TotEng Press Volume Temp Density Pxx Pyy Pzz
-1825.72 2267.23 8119.37 0.271104 0.532931 7515.93 -379.355 -334.882
Loop time of 52.4419 on 1 procs for 20000 steps with 402 atoms

unfix 1
unfix 2

######################################################################
# Deformation

run 0
Step         TotEng         Press          Volume          Temp         Density          Pxx            Pyy            Pzz
20000  -1825.9788      1819.9248      8172.1595      0.25509066     0.52948778     6786.3903     -746.66087     -579.95498
Loop time of 1.611e-06 on 1 procs for 0 steps with 402 atoms

reset_timestep 0

#Define Variables

variable    sim_id equal "styrene"

variable 	xl equal "xlo+1"
variable 	xh equal "xhi-1"
variable 	xh2 equal "xhi*3"
variable 	x_step equal "xhi/2"

variable 	p3 equal "lx"
variable 	L0 equal 57.9666982625736
variable 	strain equal "(lx - v_L0)/v_L0"
variable 	p1 equal v_strain
variable 	p2 equal "-pxx/10"

# define groups

region   	1 block INF 10.8321724692382 INF INF INF INF
group		wall region 1
3 atoms in group wall
region	    2 block 66.7988707318118 INF INF INF INF INF
group		pull region 2
1 atoms in group pull
group		boundary union wall pull
4 atoms in group boundary
group		mobile subtract all wall pull
398 atoms in group mobile

# computes

compute peratom all stress/atom NULL pair

# initial velocities

velocity	mobile create 0.01 887723
velocity	pull set 0.5 0.0 0.0
velocity	mobile ramp vx 0 33.8994353659059 x 0 203.396612195435 sum yes

# fixes

fix	f1 all nve
fix ftemp all langevin 25 25 0.05 904297
fix	f2 boundary setforce 0.0 NULL 0.0

# Dump
dump 100 all custom 10 stress_per_atom.txt id type x y z c_peratom[1] c_peratom[2] c_peratom[3] c_peratom[4] c_peratom[5] c_peratom[6]

thermo_style custom step temp pyy lx ly lz v_strain
thermo 1000
timestep 0.0005
run   100000
Step          Temp           Pyy             Lx             Ly             Lz          v_strain
0   116.00314     -748.64331      57.966698      12.8011        11.013136     -1.2257775e-16
Averages over the last 51 of 101 rows, steps 50000 to 100000:
Temp Pyy Lx Ly Lz v_strain
171.324 279.719 77.1664 11.0517 11.6417 0.331219
Loop time of 245.972 on 1 procs for 100000 steps with 402 atoms

print "All Done"
All Done
