LAMMPS (2 Aug 2023)
#Initialization

units metal
boundary s s s
atom_style atomic
variable filename string polythene
read_data polythene.dat
Reading data file ...
  orthogonal box = (-2.3773 0.59 -2.1637) to (5.3603 21.3637 3.0249)
  reading atoms ...
  62 atoms

# Meam Potential for Saturated Hydrocarbons Information

pair_style meam
pair_coeff * * library.meam C H CH.meam C H

##################################################################################
#Minimization

minimize 0.0 1.0e-8 100000 100000
Step          Temp          E_pair         E_mol          TotEng         Press          Volume
0   0             -256.8865       0             -256.8865       16038.921      834.50871
Loop time of 29.3783 on 1 procs for 16370 steps with 62 atoms

Minimization stats:
  Stopping criterion = max force evaluations
  Energy initial, next-to-last, final =
  Force two-norm initial, final = 17.927174 0.23930864
  Force max component initial, final = 8.6993444 0.16067178
  Final line search alpha, max atom move = 0.077798354 0.0125
  Iterations, force evaluations = 16370 100001

# Equilibration

reset_timestep 0
velocity 		all create 0.0 1231 dist gaussian
fix 			1 all nve
fix 			2 all langevin 0 0 0.001 904297
thermo_style 	custom step etotal press vol temp density pxx pyy pzz
thermo	  	100
timestep 		0.0003
run 			20000
Step         TotEng         Press          Volume          Temp         Density          Pxx            Pyy            Pzz
0  -258.91035     -37.506975      922.33786      0              0.50869817     98.979716     -182.6165      -28.884136
Averages over the last 101 of 201 rows, steps 10000 to 20000:
TotEng Press Volume Temp Density Pxx Pyy Pzz
-258.92 -245.304 922.338 6.93635e-05 0.508698 50.444 -766.909 -19.4468
Loop time of 8.1125 on 1 procs for 20000 steps with 62 atoms

unfix 1
unfix 2

######################################################################
# Deformation

run 0
Step         TotEng         Press          Volume          Temp         Density          Pxx            Pyy            Pzz
20000  -258.92128     -239.8335       909.68001      4.622483e-05   0.51577651     51.561976     -757.25018     -13.812293
Loop time of 2.316e-06 on 1 procs for 0 steps with 62 atoms

reset_timestep 0

#Define Variables

variable 	yl equal "ylo+1"
variable 	yh equal "yhi-1"
variable 	yh2 equal "yhi*3"
variable 	y_step equal "yhi/2"

variable 	p3 equal "ly"
variable 	L0 equal 21.2126502421121
variable 	strain equal "(ly - v_L0)/v_L0"
variable 	p1 equal v_strain
variable 	p2 equal "-pyy/10"

# define groups

region   	1 block INF INF INF 1.33038123867474 INF INF
group		wall region 1
1 atoms in group wall
region	2 block INF INF 20.5430314807869 INF INF INF
group		pull region 2
1 atoms in group pull
group		boundary union wall pull
2 atoms in group boundary
group		mobile subtract all wall pull
60 atoms in group mobile

# computes

compute peratom all stress/atom NULL pair

# initial velocities

velocity	mobile create 0.01 887723
velocity	pull set 0.0 .5 0.0
velocity	mobile ramp vy 0 10.7715157403934 y 0 64.6290944423606 sum yes

# fixes

fix	f1 all nve
fix 	ftemp all langevin 25 25 0.05 904297
fix	f2 boundary setforce NULL 0.0 0.0

# Dump
dump 100 all custom 10 stress_per_atom.txt id type x y z c_peratom[1] c_peratom[2] c_peratom[3] c_peratom[4] c_peratom[5] c_peratom[6]

thermo_style custom step temp pyy lx ly lz v_strain
thermo 1000
timestep 0.0005
run   100000
Step          Temp           Pyy             Lx             Ly             Lz          v_strain
0   7.9798216     -535.79237      7.8635191      21.21265       5.4535183      6.6992359e-16
Averages over the last 51 of 101 rows, steps 50000 to 100000:
Temp Pyy Lx Ly Lz v_strain
26.5614 -267846 2.61453 39.3954 4.13108 0.857164
Loop time of 23.8423 on 1 procs for 100000 steps with 62 atoms

print "All Done"
All Done
